RUNSPEC
TITLE
single-block radial aquifer

DIMENS
   1    1    1  /

RADIAL

WATER

METRIC

EQLDIMS
    1  100   20    1    1 /

TABDIMS
    1    1   20   20    1   30 /

WELLDIMS
    1   18    1    1 /

AQUDIMS
4* 1  100 /

START
   4 'MAY' 2020  /

NSTACK
   25 /
   
UDQDIMS
20 2* 10 /

UDADIMS
1 2* /   
   
UNIFOUT
UNIFIN

GRID     ===============================================================

-- COMPLETE THE CIRCLE IN THETA-DIRECTION
-------- K1 K2 completed
COORDSYS
1  1  'COMP'  /

TOPS
995.0
/

INRAD                                            
.10000 /

OUTRAD                                           
1000.0 /

DTHETAV                                          
1*360.000
/

DZ 
10
/

PERMR
100
/

PERMTHT
100
/

PERMZ
100
/

PORO
0.2
/

PROPS    ==============================================================

DENSITY
900 1000 1
/

PVTW
100 1* 4e-05 1.0 /

ROCK
100 1e-05 /

SOLUTION =============================================================

AQUFET
--          V  cw+cf   J
1000 100  1E+9  5e-05  10  1  1 1 1 1 1 1 'I+' /

EQUIL
1000 100 /

RPTRST
BASIC = 2 / 

SUMMARY ==============================================================

RUNSUM
SEPARATE
FPR
FWPR
FWPT
FWIR
FWIT

-- Pressure average value (Pore-Volume Weighted)
FPRP 
-- Pore Volume at Reservoir conditions
FRPV
-- Pore Volume containing Water
FWPV 
-- Water Volume in Place
FWIP 

FAQT
FAQR
AAQP
/

SCHEDULE

RPTRST
BASIC = 2 / 

WELSPECS
W W 1 1 1* OIL /
/
COMPDAT
W 1 1 1 1 OPEN 0 1* 0.20 /
/

-- Production at constant rate 
WCONPROD
W OPEN WRAT 1* 20.000  1* 1* 1* 10 /
/
TSTEP
10*10 /

-- shut-in 
WELOPEN
W STOP /
 / 
TSTEP
10*10 /

-- variable rates defined via logistic function 
WCONPROD
W OPEN WRAT 1* 12.442  1* 1* 1* 10 /
/
TSTEP
10 /
WCONPROD
W OPEN WRAT 1* 35.890  1* 1* 1* 10 /
/
TSTEP
10 /
WCONPROD
W OPEN WRAT 1* 55.427  1* 1* 1* 10 /
/
TSTEP
10 /
WCONPROD
W OPEN WRAT 1* 69.570  1* 1* 1* 10 /
/
TSTEP
10 /
WCONPROD
W OPEN WRAT 1* 77.998  1* 1* 1* 10 /
/
TSTEP
10 /
WCONPROD
W OPEN WRAT 1* 81.312  1* 1* 1* 10 /
/
TSTEP
10 /
WCONPROD
W OPEN WRAT 1* 80.617  1* 1* 1* 10 /
/
TSTEP
10 /
WCONPROD
W OPEN WRAT 1* 77.138  1* 1* 1* 10 /
/
TSTEP
10 /
WCONPROD
W OPEN WRAT 1* 71.967  1* 1* 1* 10 /
/
TSTEP
10 /
WCONPROD
W OPEN WRAT 1* 65.956  1* 1* 1* 10 /
/
TSTEP
10 /
WCONPROD
W OPEN WRAT 1* 59.704  1* 1* 1* 10 /
/
TSTEP
10 /
WCONPROD
W OPEN WRAT 1* 53.599  1* 1* 1* 10 /
/
TSTEP
10 /
WCONPROD
W OPEN WRAT 1* 47.864  1* 1* 1* 10 /
/
TSTEP
10 /
WCONPROD
W OPEN WRAT 1* 42.612  1* 1* 1* 10 /
/
TSTEP
10 /
WCONPROD
W OPEN WRAT 1* 37.882  1* 1* 1* 10 /
/
TSTEP
10 /
WCONPROD
W OPEN WRAT 1* 33.670  1* 1* 1* 10 /
/
TSTEP
10 /
WCONPROD
W OPEN WRAT 1* 29.945  1* 1* 1* 10 /
/
TSTEP
10 /
WCONPROD
W OPEN WRAT 1* 26.666  1* 1* 1* 10 /
/
TSTEP
10 /
WCONPROD
W OPEN WRAT 1* 23.787  1* 1* 1* 10 /
/
TSTEP
10 /
WCONPROD
W OPEN WRAT 1* 21.262  1* 1* 1* 10 /
/
TSTEP
10 /
-- shut-in 
WELOPEN
W STOP /
 / 
TSTEP
20*25 /



END