RUNSPEC ===========================================================================
TITLE
single-cell to test PVT properties (PVCO)

--NOSIM

DIMENS
1 1 1 /

METRIC

OIL 
WATER
GAS
DISGAS

ENDSCALE
NODIR  REVERS  /

TABDIMS
-- Sat          Pressure nodes     Rs nodes
1     1   50     50          1*   21  /  

START
1 'JAN' 2025 /

WELLDIMS
5 20 2 5 /

AQUDIMS
5* 400 /

UNIFOUT
UNIFIN

NSTACK
50 /

--NOSIM
--=============================================================================
GRID

INIT

DXV 
100 /

-- 20 blocks along X-axis
DYV 
100 / 

DZ 
100
 /

TOPS 
-50 /

PORO 
0.5 /

PERMX
250 /

PERMY
250 /

PERMZ
250 /
 
--=============================================================================
PROPS
-- zero gravity mode
--GRAVCONS
--0 /

PVTW
150 1* 4e-05 0.5 /

ROCK
150 1e-5 /


RPTPROPS
-- PROPS Reporting Options
'PVTO' 'PVDO' 'PVTW' 'PVTG' 'PVDG' 
/

-- DENSITY created by PVTi
-- Units: kg /m^3     kg /m^3     kg /m^3
NOECHO
DENSITY
-- Fluid Densities at Surface Conditions
828.37  1000  0.91334
/
 
NOECHO
PMAX
-- Maximum Simulation Pressure
500 1* 1* 1*
/ 

NOECHO

PVCO
  1.0132     0.0000  1.0746     1.4697  6.7547e-05  1*
 39.7173    16.3347  1.1298     0.5510  2.2947e-04  1*
 78.4213    31.4861  1.1649     0.5361  2.3747e-04  1*
117.1254    46.4358  1.1967     0.5177  2.4300e-04  1*
155.8294    61.9246  1.2281     0.4959  2.4754e-04  1*
194.5335    78.2574  1.2601     0.4721  2.5149e-04  1*
233.2375    95.6408  1.2933     0.4473  2.5506e-04  1*
271.9416   114.2589  1.3281     0.4222  2.5836e-04  1*
310.6456   134.3020  1.3649     0.3973  2.6127e-04  1*
349.3497   155.9829  1.4041     0.3730  2.7617e-04  1*
388.6504   179.9300  1.4470     0.3490  2.9020e-04  1*
394.2484   183.5110  1.4534     0.3457  2.9038e-04  1*
400.4430   187.5282  1.4605     0.3420  2.9078e-04  1*
406.6376   191.6039  1.4677     0.3384  2.9119e-04  1*
412.8322   195.7396  1.4751     0.3348  2.9160e-04  1*
419.0269   199.9369  1.4825     0.3312  2.9201e-04  1*
425.2215   204.1971  1.4900     0.3276  2.9243e-04  1*
431.4161   208.5220  1.4976     0.3240  2.9285e-04  1*
437.6107   212.9133  1.5054     0.3205  2.9327e-04  1*
443.8054   217.3728  1.5132     0.3170  2.9548e-04  1*
450.0000   221.9021  1.5212     0.3135  2.9804e-04  1*
/
 
PVDG
-- Dry Gas PVT Properties (No Vapourised Oil)
      1.0132 1.39054209210038 0.0131716137004739
     39.7173 0.034535279086624 0.0167803049716437
     78.4213 0.0174419723168367 0.0179683970788986
    117.1254 0.0116801178482141 0.0189160225119104
    155.8294 0.00880457069238851 0.0198951916637409
    194.5335 0.00709128337103189 0.0209746102872981
    233.2375 0.00596041903856688 0.0221732816501162
    271.9416 0.00516215416661723 0.0234899994450188
    310.6456 0.00457116500852933 0.0249130430588322
    349.3497 0.00411768732652665 0.0264252146972231
   388.65037067637 0.00375492038881893 0.0280320348732249
    394.2484 0.00370952367682546 0.0282654583345033
     400.443 0.00366087180538217 0.0285249186003456
    406.6376 0.00361380691283736 0.0287855257817576
    412.8322 0.00356825524694625 0.0290472085393561
    419.0269 0.00352414676063411 0.0293099014539726
    425.2215 0.00348141761601513 0.0295735281407229
    431.4161 0.0034400056205044 0.0298380267813228
    437.6107 0.00339985282871295 0.030103333250009
    443.8054 0.0033609039536879 0.0303693897135263
         450 0.00332310863669126 0.0306361274973853
/
 
NOECHO


---------------------------------------------------------------------
-- hydrophilic RPs --
-- generated 21-Nov-2022 22:43:31 
-- Sorw = 0.250 
-- Sorg = 0.200 
-- Swcr = 0.250 
-- Sgcr = 0.050 
-- Sgcr = 0.050 
-- Krw_Sorw = 0.250 
-- Kro_Swcr = 1.000 
-- Krg_Sorg = 0.700 
-- Kro_max = 1.000 
-- Krw_max = 1.000 
-- Krg_max = 1.000 
-- oil exponent in oil-water system, ow = 2.000 
-- oil exponent in oil-gas system with connate water, og = 2.000 
-- water exponent, w = 3.000 
-- gas exponent, w = 2.000 

STONE2

SWFN
2.5000e-01 0.0000e+00 5.0e-02 
3.0000e-01 2.5000e-04 1* 
3.5000e-01 2.0000e-03 1* 
4.0000e-01 6.7500e-03 1* 
4.5000e-01 1.6000e-02 1* 
5.0000e-01 3.1250e-02 1* 
5.5000e-01 5.4000e-02 1* 
6.0000e-01 8.5750e-02 1* 
6.5000e-01 1.2800e-01 1* 
7.0000e-01 1.8225e-01 1* 
7.5000e-01 2.5000e-01 1* 
1.0000e+00 1.0000e+00 0.0e+00 
/
SGFN
0.0000e+00 0.0000e+00 0.0e+00 
5.0000e-02 0.0000e+00 1* 
1.2000e-01 1.0000e-02 1* 
1.9000e-01 4.0000e-02 1* 
2.6000e-01 9.0000e-02 1* 
3.3000e-01 1.6000e-01 1* 
4.0000e-01 2.5000e-01 1* 
4.7000e-01 3.6000e-01 1* 
5.4000e-01 4.9000e-01 1* 
6.1000e-01 6.4000e-01 1* 
6.8000e-01 8.1000e-01 1* 
7.5000e-01 1.0000e+00 5.0e-02 
/
SOF3
0.0000e+00 0.0000e+00 0.0000e+00 
2.0000e-01 0.0000e+00 0.0000e+00 
2.2895e-01 0.0000e+00 2.7701e-03 
2.5000e-01 0.0000e+00 8.2645e-03 
2.5789e-01 2.4931e-04 1.1080e-02 
2.8684e-01 5.4294e-03 2.4931e-02 
3.1579e-01 1.7313e-02 4.4321e-02 
3.4474e-01 3.5900e-02 6.9252e-02 
3.7368e-01 6.1191e-02 9.9723e-02 
4.0263e-01 9.3186e-02 1.3573e-01 
4.3158e-01 1.3188e-01 1.7729e-01 
4.6053e-01 1.7729e-01 2.2438e-01 
4.8947e-01 2.2939e-01 2.7701e-01 
5.1842e-01 2.8820e-01 3.3518e-01 
5.4737e-01 3.5371e-01 3.9889e-01 
5.7632e-01 4.2593e-01 4.6814e-01 
6.0526e-01 5.0485e-01 5.4294e-01 
6.3421e-01 5.9047e-01 6.2327e-01 
6.6316e-01 6.8280e-01 7.0914e-01 
6.9211e-01 7.8183e-01 8.0055e-01 
7.2105e-01 8.8756e-01 8.9751e-01 
7.5000e-01 1.0000e+00 1.0000e+00 
/

SGCR
0.10 /

SOGCR
0.10 /

SWL
0.2 /

SWCR
0.2 /

KRG
0.6 /

---------------------------------------------------------------------
SOLUTION

EQUIL
--Depth  RP     WOC   Pcw     GOC 
   0    250    1000    1*    -1000  1*  1  /
   
PBVD
-100 100 
 100 100 /


RPTRST 
BASIC=4 /

--=============================================================================
SUMMARY

SEPARATE
EXCEL

-- production / injection
FGOR
FWCT
FOPR
FGPR
FGPT
FOPT
FWPR
FWPT
FLPR
FLPT
FGIR
FGIT
FWIR
FWIT
-- field pressures
-- 
FPR  
FPRP
-- Res Volume Production Rate
FVPR   
FVIR
FVIT
-------------------------------------------------------
-- in-place volumes
-- average Rs
FRS
-- oil in place
FOIP
-- water in place
FWIP
-- gas in place
FGIP
-- gas in place (free)
FGIPG
-- gas in place (disolved)
FGIPL

-- Hydrocarbon Pore Volume
FHPV 
-- Pore Volume at Reservoir conditions
FRPV
-- Pore Volume containing Hydrocarbon
FWPV
-------------------------------------------------------
-- Recovery factors
-- (OIP(initial) - OIP(now)) / OIP(initial)
FOE    
-- Oil Production from Wells / OIP(initial)
FOEW   
-- Oil Production from Wells / Initial Mobile Oil with respect to Water
FOEWW  
-- (OIP(initial) - OIP(now)) / Initial Mobile Oil with respect to Water
FOEIW  
-------------------------------------------------------
-- Recovery mechanism
-- Total stock tank oil produced by rock compaction
FORMR
-- Total stock tank oil produced by water influx
FORMW
-- Total stock tank oil produced by gas influx
FORMG 
-- Total stock tank oil produced by oil expansion
FORME 
-- Total stock tank oil produced by solution gas
FORMS 
-- Total stock tank oil produced by free gas influx
FORMF 
-------------------------------------------------------

WBHP
/

---- Oil VIScosity average value
--FOVIS
--FWVIS
--FGVIS
--
---- Oil reservoir DENsity average value
--FODEN
--FWDEN
--FGDEN

RPTONLY

--=============================================================================
SCHEDULE

-- 1. TSINIT Maximum length of next timestep
-- UNITS: day (METRIC), day (FIELD), hr (LAB)
-- DEFAULT: 1.0 (all unit sets)
-- 2. TSMAXZ Maximum length of timesteps after the next
-- UNITS: day (METRIC), day (FIELD), hr (LAB)
-- DEFAULT: 365.0 (all unit sets)
-- 3. TSMINZ Minimum length of all timesteps
-- UNITS: day (METRIC), day (FIELD), hr (LAB)
-- DEFAULT: 0.1 (all unit sets)
-- 4. TSMCHP Minimum choppable timestep
-- UNITS: day (METRIC), day (FIELD), hr (LAB)
-- DEFAULT: 0.15 (all unit sets)
-- 5. TSFMAX Maximum timestep increase factor
-- DEFAULT: 3.0
-- 6. TSFMIN Minimum timestep cutback factor
-- DEFAULT: 0.3
-- 7. TSFCNV Factor by which timestep is cut after convergence failure
-- DEFAULT: 0.1
-- 8. TFDIFF Maximum increase factor after a convergence failure
-- DEFAULT: 1.25
-- 9. THRUPT Maximum throughput ratio
-- DEFAULT: 1E20 (Implicit), 0.2 (IMPES)
-- 10. TMAXWC Maximum length of the next timestep following a well modification
-- UNITS: day (METRIC), day (FIELD), hr (LAB)
-- DEFAULT: No limit
TUNING
--   1    2    3     4    5    6    7    8    9    10 
     1*   5    1*    1*   1*   1*   1*   1*   1*  0.01  /
/
--   1    2    3    4    5   6    7    8    9  10
     20   1*  100   1*  20   20   1*   1*   1   2 /

--RPTRST 
----BASIC=3 FREQ=8 PRESSURE KRO KRW KRG PCOG PCOW BO BW BG DENO DENW DENG  /
--BASIC=3 FREQ=4 /

WELSPECS
P   P   1    1   1*  OIL   /
/

COMPDAT
P   1*  1*  1   1 OPEN 0 1* 0.15 /
/

-- depletion #1 -------------------------------------------------------
WCONPROD
--             O    W     G     L   RESV   BHP
-- 2      3    4    5     6     7    8      9
P OPEN   RESV  1*   1*    1*    1*   25    30   /
/

--WECON
----  min(oil) min(gas) max(wct) max(GOR)  workover1  endrun
----	  2       3         4       5         7     
--P    0.1      1*        1*      1*   1*   WELL       NO   /
--/

TSTEP
20*50 /

-- repressurisation #1 by gas injection -------------------------------
WCONINJE
--                   Q(S) Q(R)   BHP
P GAS    OPEN  RATE  0.5e+4   1*    1*  /
/

TSTEP
10*50 /

-- depletion #2 ------------------------------------------------------- 
WCONPROD
--             O    W     G     L   RESV   BHP
-- 2      3    4    5     6     7    8      9
P OPEN   RESV  1*   1*    1*    1*   50    30   /
/

TSTEP
10*50 /

-- repressurisation #2 by gas injection -------------------------------
WCONINJE
--                   Q(S) Q(R)   BHP
P GAS    OPEN  RATE  0.75e+4    1*    1*  /
/

TSTEP
20*50 /