RUNSPEC
TITLE
TEST DATASET FOR MBE

DIMENS
   100    1    1  /

RADIAL

--OIL
WATER
GAS
--DISGAS

--NOSIM

METRIC

EQLDIMS
    1  100   20    1    1 /

TABDIMS
    1    1   20   40    1   30 /

WELLDIMS
    1   18    1    1 /

AQUDIMS
4* 1  100 /

START
   4 'MAY' 2020  /

NSTACK
   25 /
   
UDQDIMS
20 2* 10 /

UDADIMS
1 2* /   
   
UNIFOUT
UNIFIN

GRID     ===============================================================

-- COMPLETE THE CIRCLE IN THETA-DIRECTION
-------- K1 K2 completed
COORDSYS
1  1  'COMP'  /

TOPS
100*1000.0
/

INRAD                                            
.15000 /

OUTRAD                                           
--1000.0 /
2500.0 /

DTHETAV                                          
1*360.000
/

DZ 
100*25
/

PERMR
100*1000
/

PERMTHT
100*1000
/

PERMZ
100*1000
/

PORO
100*0.2
/

--MULTPV
--99*1 10000 /

PROPS    ==============================================================

GRAVCONS
0 / 

DENSITY
-- 0.6798 kg/sm3 density of CH4 at 1 atm and 15 degC:
900 1000 0.6798
/


PVTW
100 1* 4e-05 1.0 /

PVDG
-- CH4 @ 30 degC
-- p (bar) 	FVF			mu (cP)
1.000E+01	1.051E-01	1.147E-02
2.000E+01	5.169E-02	1.163E-02
3.000E+01	3.391E-02	1.182E-02
4.000E+01	2.503E-02	1.203E-02
5.000E+01	1.971E-02	1.228E-02
6.000E+01	1.618E-02	1.255E-02
7.000E+01	1.367E-02	1.285E-02
8.000E+01	1.180E-02	1.318E-02
9.000E+01	1.035E-02	1.354E-02
1.000E+02	9.207E-03	1.393E-02
1.100E+02	8.283E-03	1.435E-02
1.200E+02	7.524E-03	1.480E-02
1.300E+02	6.894E-03	1.528E-02
1.400E+02	6.365E-03	1.578E-02
1.500E+02	5.917E-03	1.630E-02
1.600E+02	5.536E-03	1.684E-02
1.700E+02	5.208E-03	1.739E-02
1.800E+02	4.925E-03	1.796E-02
1.900E+02	4.679E-03	1.853E-02
2.000E+02	4.464E-03	1.910E-02
2.100E+02	4.276E-03	1.968E-02
2.200E+02	4.109E-03	2.025E-02
2.300E+02	3.962E-03	2.082E-02
2.400E+02	3.831E-03	2.139E-02
2.500E+02	3.713E-03	2.194E-02
2.600E+02	3.608E-03	2.250E-02
2.700E+02	3.512E-03	2.304E-02
2.800E+02	3.426E-03	2.357E-02
2.900E+02	3.347E-03	2.410E-02
3.000E+02	3.275E-03	2.461E-02
3.100E+02	3.209E-03	2.512E-02
3.200E+02	3.148E-03	2.561E-02
3.300E+02	3.091E-03	2.610E-02
3.400E+02	3.039E-03	2.658E-02
3.500E+02	2.990E-03	2.705E-02
3.600E+02	2.945E-03	2.751E-02
3.700E+02	2.903E-03	2.796E-02
3.800E+02	2.863E-03	2.840E-02
3.900E+02	2.826E-03	2.884E-02
4.000E+02	2.791E-03	2.927E-02
/

ROCK
100 1e-05 /

-- Relative permeabilities
SGFN
--Sg Kg  Pc
0.0 0.0 1*
1.0 1.0 1* /

SWFN
--Sg Kg  Pc
0.0 0.0 1*
1.0 1.0 1* /


SOLUTION =============================================================

PRESSURE
100*100 /

SWAT
90*0.0 10*1.0 /

AQUFET
--          V    cw+cf  J
1000 100  1E+11  5e-05  1000 1  100 100 1 1 1 1 'I+' /

RPTRST
BASIC = 2 PORV FIP / 

SUMMARY ==============================================================

RUNSUM
SEPARATE

FPR
FWPR
FWPT
FWIR
FWIT
DATE

-- Pressure average value (Pore-Volume Weighted)
FPRP 
-- Pore Volume at Reservoir conditions
FRPV
-- Pore Volume containing Water
FWPV 
-- Water Volume in Place
FWIP 
-- Gas Volume in Place
FGIP 

FGPR
FGPT
FGIR
FGIT

WBHP
/

FAQT
FAQR
AAQP
/

RPTONLY

SCHEDULE

RPTRST
BASIC = 2 / 

WELSPECS
W W 1 1 1* OIL /
/
COMPDAT
W 1 1 1 1 OPEN 0 1* 0.30 /
/

---- variable rates defined via logistic function 
--WCONPROD
--W OPEN GRAT 1* 1* 15E+6 1* 1* 10 /
--/

--WCONINJE
--W GAS OPEN RATE 15E+6 1* 200 /
--/


NOECHO
WCONINJE
W GAS OPEN RATE  8.857e+06 1* 350 /
/
TSTEP
7 /

WCONINJE
W GAS OPEN RATE  1.271e+07 1* 350 /
/
TSTEP
7 /

WCONINJE
W GAS OPEN RATE  1.514e+07 1* 350 /
/
TSTEP
7 /

WCONINJE
W GAS OPEN RATE  1.300e+07 1* 350 /
/
TSTEP
7 /

WCONINJE
W GAS OPEN RATE  1.371e+07 1* 350 /
/
TSTEP
7 /

WCONINJE
W GAS OPEN RATE  1.314e+07 1* 350 /
/
TSTEP
7 /

WCONINJE
W GAS OPEN RATE  1.371e+07 1* 350 /
/
TSTEP
7 /

WCONINJE
W GAS OPEN RATE  1.357e+07 1* 350 /
/
TSTEP
7 /

WCONINJE
W GAS OPEN RATE  9.429e+06 1* 350 /
/
TSTEP
7 /

WCONINJE
W GAS OPEN RATE  1.114e+07 1* 350 /
/
TSTEP
7 /

WCONINJE
W GAS OPEN RATE  7.286e+06 1* 350 /
/
TSTEP
7 /

WCONINJE
W GAS OPEN RATE  6.429e+06 1* 350 /
/
TSTEP
7 /

WCONINJE
W GAS OPEN RATE  3.429e+06 1* 350 /
/
TSTEP
7 /

WCONINJE
W GAS OPEN RATE  4.714e+06 1* 350 /
/
TSTEP
7 /

WCONINJE
W GAS OPEN RATE  6.857e+06 1* 350 /
/
TSTEP
7 /

WCONINJE
W GAS OPEN RATE  4.714e+06 1* 350 /
/
TSTEP
7 /

WCONINJE
W GAS OPEN RATE  7.000e+06 1* 350 /
/
TSTEP
7 /

WCONINJE
W GAS OPEN RATE  9.857e+06 1* 350 /
/
TSTEP
7 /

WCONINJE
W GAS OPEN RATE  9.000e+06 1* 350 /
/
TSTEP
7 /

WCONINJE
W GAS OPEN RATE  9.857e+06 1* 350 /
/
TSTEP
7 /

WCONINJE
W GAS OPEN RATE  1.229e+07 1* 350 /
/
TSTEP
7 /

WCONINJE
W GAS OPEN RATE  6.571e+06 1* 350 /
/
TSTEP
7 /

WCONINJE
W GAS OPEN RATE  1.400e+07 1* 350 /
/
TSTEP
7 /

WCONINJE
W GAS OPEN RATE  1.286e+07 1* 350 /
/
TSTEP
7 /

WCONINJE
W GAS OPEN RATE  1.157e+07 1* 350 /
/
TSTEP
7 /

WCONINJE
W GAS OPEN RATE  8.286e+06 1* 350 /
/
TSTEP
7 /

WCONINJE
W GAS OPEN RATE  6.857e+06 1* 350 /
/
TSTEP
7 /

WCONINJE
W GAS OPEN RATE  9.286e+06 1* 350 /
/
TSTEP
7 /

WCONINJE
W GAS OPEN RATE  5.571e+06 1* 350 /
/
TSTEP
7 /

WCONPROD
W OPEN GRAT 1* 1* 1.914e+07  1* 1* 10 /
/
TSTEP
7 /

WCONPROD
W OPEN GRAT 1* 1* 8.429e+06  1* 1* 10 /
/
TSTEP
7 /

WCONPROD
W OPEN GRAT 1* 1* 9.000e+06  1* 1* 10 /
/
TSTEP
7 /

WCONPROD
W OPEN GRAT 1* 1* 1.100e+07  1* 1* 10 /
/
TSTEP
7 /

WCONPROD
W OPEN GRAT 1* 1* 2.014e+07  1* 1* 10 /
/
TSTEP
7 /

WCONPROD
W OPEN GRAT 1* 1* 6.857e+06  1* 1* 10 /
/
TSTEP
7 /

WCONPROD
W OPEN GRAT 1* 1* 2.857e+06  1* 1* 10 /
/
TSTEP
7 /

WCONPROD
W OPEN GRAT 1* 1* 1.300e+07  1* 1* 10 /
/
TSTEP
7 /

WCONPROD
W OPEN GRAT 1* 1* 1.157e+07  1* 1* 10 /
/
TSTEP
7 /

WCONPROD
W OPEN GRAT 1* 1* 2.329e+07  1* 1* 10 /
/
TSTEP
7 /

WCONPROD
W OPEN GRAT 1* 1* 2.471e+07  1* 1* 10 /
/
TSTEP
7 /

WCONPROD
W OPEN GRAT 1* 1* 3.386e+07  1* 1* 10 /
/
TSTEP
7 /

WCONPROD
W OPEN GRAT 1* 1* 1.114e+07  1* 1* 10 /
/
TSTEP
7 /

WCONPROD
W OPEN GRAT 1* 1* 2.529e+07  1* 1* 10 /
/
TSTEP
7 /

WCONPROD
W OPEN GRAT 1* 1* 2.371e+07  1* 1* 10 /
/
TSTEP
7 /

WCONPROD
W OPEN GRAT 1* 1* 2.129e+07  1* 1* 10 /
/
TSTEP
7 /

WCONPROD
W OPEN GRAT 1* 1* 2.857e+07  1* 1* 10 /
/
TSTEP
7 /

WCONPROD
W OPEN GRAT 1* 1* 6.714e+06  1* 1* 10 /
/
TSTEP
7 /

WCONPROD
W OPEN GRAT 1* 1* 5.143e+06  1* 1* 10 /
/
TSTEP
7 /

WCONINJE
W GAS OPEN RATE  3.286e+06 1* 350 /
/
TSTEP
7 /

WCONINJE
W GAS OPEN RATE  3.571e+06 1* 350 /
/
TSTEP
7 /

WCONINJE
W GAS OPEN RATE  1.314e+07 1* 350 /
/
TSTEP
7 /

WCONINJE
W GAS OPEN RATE  1.314e+07 1* 350 /
/
TSTEP
7 /

WCONINJE
W GAS OPEN RATE  1.757e+07 1* 350 /
/
TSTEP
7 /

WCONINJE
W GAS OPEN RATE  1.214e+07 1* 350 /
/
TSTEP
7 /

WCONINJE
W GAS OPEN RATE  1.514e+07 1* 350 /
/
TSTEP
7 /

WCONINJE
W GAS OPEN RATE  1.429e+07 1* 350 /
/
TSTEP
7 /

WCONINJE
W GAS OPEN RATE  1.629e+07 1* 350 /
/
TSTEP
7 /

WCONINJE
W GAS OPEN RATE  1.700e+07 1* 350 /
/
TSTEP
7 /

WCONINJE
W GAS OPEN RATE  1.457e+07 1* 350 /
/
TSTEP
7 /

WCONINJE
W GAS OPEN RATE  1.643e+07 1* 350 /
/
TSTEP
7 /

WCONINJE
W GAS OPEN RATE  1.400e+07 1* 350 /
/
TSTEP
7 /

WCONINJE
W GAS OPEN RATE  1.271e+07 1* 350 /
/
TSTEP
7 /

WCONINJE
W GAS OPEN RATE  1.157e+07 1* 350 /
/
TSTEP
7 /

WCONINJE
W GAS OPEN RATE  8.857e+06 1* 350 /
/
TSTEP
7 /

WCONINJE
W GAS OPEN RATE  5.143e+06 1* 350 /
/
TSTEP
7 /

WCONINJE
W GAS OPEN RATE  9.286e+06 1* 350 /
/
TSTEP
7 /

WCONINJE
W GAS OPEN RATE  7.857e+06 1* 350 /
/
TSTEP
7 /

WCONINJE
W GAS OPEN RATE  7.000e+06 1* 350 /
/
TSTEP
7 /

WCONINJE
W GAS OPEN RATE  8.429e+06 1* 350 /
/
TSTEP
7 /

WCONINJE
W GAS OPEN RATE  8.571e+06 1* 350 /
/
TSTEP
7 /

WCONINJE
W GAS OPEN RATE  1.200e+07 1* 350 /
/
TSTEP
7 /

WCONINJE
W GAS OPEN RATE  1.114e+07 1* 350 /
/
TSTEP
7 /

WCONINJE
W GAS OPEN RATE  1.200e+07 1* 350 /
/
TSTEP
7 /

WCONINJE
W GAS OPEN RATE  1.457e+07 1* 350 /
/
TSTEP
7 /

WCONINJE
W GAS OPEN RATE  1.600e+07 1* 350 /
/
TSTEP
7 /

WCONINJE
W GAS OPEN RATE  1.400e+07 1* 350 /
/
TSTEP
7 /

WCONINJE
W GAS OPEN RATE  1.486e+07 1* 350 /
/
TSTEP
7 /

WCONINJE
W GAS OPEN RATE  1.243e+07 1* 350 /
/
TSTEP
7 /

WCONINJE
W GAS OPEN RATE  1.271e+07 1* 350 /
/
TSTEP
7 /

WCONINJE
W GAS OPEN RATE  4.857e+06 1* 350 /
/
TSTEP
7 /

WCONINJE
W GAS OPEN RATE  4.286e+05 1* 350 /
/
TSTEP
7 /

WCONPROD
W OPEN GRAT 1* 1* 1.343e+07  1* 1* 10 /
/
TSTEP
7 /

WCONPROD
W OPEN GRAT 1* 1* 4.000e+06  1* 1* 10 /
/
TSTEP
7 /

WCONPROD
W OPEN GRAT 1* 1* 2.714e+06  1* 1* 10 /
/
TSTEP
7 /

WCONPROD
W OPEN GRAT 1* 1* 1.043e+07  1* 1* 10 /
/
TSTEP
7 /

WCONPROD
W OPEN GRAT 1* 1* 1.529e+07  1* 1* 10 /
/
TSTEP
7 /

WCONPROD
W OPEN GRAT 1* 1* 2.300e+07  1* 1* 10 /
/
TSTEP
7 /

WCONPROD
W OPEN GRAT 1* 1* 8.286e+06  1* 1* 10 /
/
TSTEP
7 /

WCONPROD
W OPEN GRAT 1* 1* 6.286e+06  1* 1* 10 /
/
TSTEP
7 /

WCONPROD
W OPEN GRAT 1* 1* 1.557e+07  1* 1* 10 /
/
TSTEP
7 /

WCONPROD
W OPEN GRAT 1* 1* 1.314e+07  1* 1* 10 /
/
TSTEP
7 /

WCONPROD
W OPEN GRAT 1* 1* 2.871e+07  1* 1* 10 /
/
TSTEP
7 /

WCONPROD
W OPEN GRAT 1* 1* 1.957e+07  1* 1* 10 /
/
TSTEP
7 /

WCONPROD
W OPEN GRAT 1* 1* 1.643e+07  1* 1* 10 /
/
TSTEP
7 /

WCONPROD
W OPEN GRAT 1* 1* 2.157e+07  1* 1* 10 /
/
TSTEP
7 /

WCONPROD
W OPEN GRAT 1* 1* 2.043e+07  1* 1* 10 /
/
TSTEP
7 /

WCONPROD
W OPEN GRAT 1* 1* 1.557e+07  1* 1* 10 /
/
TSTEP
7 /

WCONPROD
W OPEN GRAT 1* 1* 6.857e+06  1* 1* 10 /
/
TSTEP
7 /

WCONPROD
W OPEN GRAT 1* 1* 1.286e+06  1* 1* 10 /
/
TSTEP
7 /

WCONPROD
W OPEN GRAT 1* 1* 4.143e+06  1* 1* 10 /
/
TSTEP
7 /

WCONPROD
W OPEN GRAT 1* 1* 2.714e+06  1* 1* 10 /
/
TSTEP
7 /

WCONINJE
W GAS OPEN RATE  5.429e+06 1* 350 /
/
TSTEP
7 /

WCONINJE
W GAS OPEN RATE  1.043e+07 1* 350 /
/
TSTEP
7 /

WCONINJE
W GAS OPEN RATE  6.143e+06 1* 350 /
/
TSTEP
7 /

WCONINJE
W GAS OPEN RATE  1.000e+07 1* 350 /
/
TSTEP
7 /

WCONINJE
W GAS OPEN RATE  1.557e+07 1* 350 /
/
TSTEP
7 /

WCONINJE
W GAS OPEN RATE  1.471e+07 1* 350 /
/
TSTEP
7 /

WCONINJE
W GAS OPEN RATE  1.157e+07 1* 350 /
/
TSTEP
7 /



END